// Generated for: spectre
// Design Netlist Generated on: Apr 15 13:19:54 2026
// Design library name: VGA
// Design cell name: VGA_1_pss_tb
// Design view name: schematic
simulator lang=spectre
global 0
