simulator lang=spectre
include "cpoly.scs"
include "cvar.scs"
include "modn.scs"
include "modp.scs"
include "rpolyh.scs"
