// Generated for: spectre
// Design Netlist Generated on: Apr 15 12:50:44 2026
// Design library name: VGA
// Design cell name: VGA_1_tb
// Design view name: schematic
simulator lang=spectre
global 0
