// Generated for: spectre
// Design Netlist Generated on: Mar 23 10:25:49 2026
// Design library name: VGA
// Design cell name: VGA_1_tb
// Design view name: schematic
simulator lang=spectre
global 0
