// Generated for: spectre
// Generated on: Mar 12 10:51:06 2026
// Design library name: VGA
// Design cell name: VGA_tb_new
// Design view name: schematic
simulator lang=spectre
global 0
