// Generated for: spectre
// Design Netlist Generated on: Mar 16 17:43:27 2026
// Design library name: CHARACTERIZATION
// Design cell name: GM_ID_PMOS
// Design view name: schematic
simulator lang=spectre
global 0
