// Generated for: spectre
// Design Netlist Generated on: Mar 18 17:21:29 2026
// Design library name: ECG_IA
// Design cell name: ecg_vga_tb
// Design view name: schematic
simulator lang=spectre
global 0
