// Generated for: spectre
// Design Netlist Generated on: Apr 16 10:27:23 2026
// Design library name: VGA
// Design cell name: VGA_1_pss_tb
// Design view name: schematic
simulator lang=spectre
global 0
