// Generated for: spectre
// Design Netlist Generated on: Apr  9 12:30:18 2026
// Design library name: VGA
// Design cell name: VGA_1_tb
// Design view name: schematic
simulator lang=spectre
global 0
