// Generated for: spectre
// Design Netlist Generated on: Apr 16 10:45:57 2026
// Design library name: VGA
// Design cell name: VGA_1_tb
// Design view name: schematic
simulator lang=spectre
global 0
