// Generated for: spectre
// Design Netlist Generated on: Mar 13 09:55:11 2026
// Design library name: ECG_IA
// Design cell name: ecg_vga_tb
// Design view name: schematic
simulator lang=spectre
global 0
