simulator lang=spectre
include "modp.scs"
