// Generated for: spectre
// Design Netlist Generated on: Apr 15 12:55:46 2026
// Design library name: VGA
// Design cell name: VGA_1_wakeup_tb
// Design view name: schematic
simulator lang=spectre
global 0
