simulator lang=spectre
include "cpoly.scs"
include "modn.scs"
include "modp.scs"
