// Generated for: spectre
// Design Netlist Generated on: Mar 19 13:38:59 2026
// Design library name: VGA
// Design cell name: VGA_1_tb
// Design view name: schematic
simulator lang=spectre
global 0
